Sistemas/exemplo3 ALTERADO.PWF
TITU
Ex.3 - Anarede V09 - Compensador Estatico de Reativos                           
DCTE
(Mn) ( Val) (Mn) ( Val) (Mn) ( Val) (Mn) ( Val) (Mn) ( Val) (Mn) ( Val) 
BASE   100. DASE   100. TEPA     1. EXST     4. TETP     5. TBPA     5.
TLPP     1. TEPR     1. QLST     4. TLPR     1. TLPQ     2. TSBZ    .01
TSBA     5. ASTP    .05 VSTP     5. TLVC   .005 TLTC    .01 TSFR  .1E-7
ZMAX   500. TLPV     .5 VDVM   200. VDVN    40. TUDC   .001 TADC    .01
PGER    30. TPST     2. VFLD    70. ZMIN   .001 HIST    470 LFIT     10
ACIT     90 LFCV      1 DCIT     10 VSIT     10 LPIT     50 LFLP     10
PDIT      1 LCRT     24 LPRT     60 CSTP     5. ASDC     1.
ICIT   9999 DMAX      5 FDIV     2. ICMN    .05 VART     5. TSTP     33
ICMV     .5 APAS    90. CPAR    70. VAVT     2. VAVF     5. VMVF    15.
VPVT     2. VPVF     5. VPMF    10. VSVF    20. VINF     1. VSUP     1.
TLSI     0. NDIR    20. STTR     5. TRPT   100. STIR     1. BFPO     1.
LFPO     .1 TLMT     0. TLMF     0. TLMG     0. PARS    10.            
99999
DBAR
(Num)OETGb(   nome   )Gl( V)( A)( Pg)( Qg)( Qn)( Qm)(Bc  )( Pl)( Ql)( Sh)Are(Vf)M(1)(2)(3)(4)(5)(6)(7)(8)(9)(10
   10 L1  ANGRA----1MQ  1035-57.   0.21.23   0.   0.                       11000                                   
   12 L1  LCBARRET-5MQ  1050-23. 900.-1.19-99999999.       5.76   0.       11000                                   
   14 L1  FUNIL----2MQ  1050-59. 200.63.53-99999999.       1.14   0.       11000                                   
   16 L1  FURNAS---7MQ  1050-27.1000.100.1-99999999.       7.55   0.       11000                                   
   18 L1  ITUMBIAR-5MQ  1050-4.52100.411.8-99999999.       6.49   0.       11000                                   
   20 L1  MARIMBON-7MQ  1044-11.1200.-363.-99999999.       4.32   0.       11000                                   
   22 L1  M.MOR.-A-6MQ  1040-27. 250.-43.1-99999999.        1.8   0.       11000                                   
   24 L1  M.MOR.-B-4MQ   980-27. 150.8.021-99999999.        1.2   0.       11000                                   
   28 L1  P.COLOMB-4MQ  1030-18. 320.26.11-99999999.       1.55   0.       11000                                   
   30 L1  SCRUZ-19-1MQ  1000-58. 400.-.713-99999999.                       11000                                   
   31 L1  SCRUZ-13-0MQ   960-53.  80.6.945-99999999.                       11000                                   
   35 L1  CORUMBA--1MQ  1030-17. 120.45.91-99999999.                       11000                                   
   40 L1  B.GERAL--2CS   985-50.   0.15.59-99999999.                       11000                                   
   41 L1  B.SUL----1CS  1000-42.   0.-4.83-99999999.                       11000                                   
   42 L   BAND10.5-CE1  1112-34.                                     90.9  11000                                   
   43 L   BAND10.5-CE2  1142-34.                                     90.9  11000                                   
   44 L1  GRAJAU---2CS  1012-74.   0.35.71-99999999.   178  2.6   0.       11000                                   
   45 L1  VITORIA--1CS  1037-101   0. 32.2-99999999.   151                 11000                                   
   48 L1  IBIUNA---3CS  1043-29.   0.-49.5-99999999.                       11000                                   
   50 L1  T.PRETO--1CS  1040-36.   0.170.1-99999999.        .55   0.       11000                                   
   55 L   BALTO----CE1  1080-59.                                      29.  11000                                   
   60 L   F.IGUACU-765   9749.67                                    -660.  11000                                   
   61 L   FOZ-500-60HZ  102814.6                                           11000                                   
   62 L   IV-FOZ-1-765  1043-18.                                    -150.  11000                                   
   63 L   IV-FOZ-2-765  1042-18.                                    -150.  11000                                   
   65 L   IVAIPORA-765  1002-7.9                                           11000                                   
   66 L   IVAIPORA-525  1020 -9.                                           11000                                   
   67 L   IVAIPORA--69  1022-9.1                            .24   0.       11000                                   
   68 L   IVAIPORA-FIC  1022-9.1                                           11000                                   
   69 L   IV-ITA-1-765  10132.09                                    -330.  11000                                   
   70 L   IV-ITA-2-765  10142.09                                    -330.  11000                                   
   72 L   ITABERA--765   999-18.                                    -660.  11000                                   
   73 L   ITA-TP-1-765   989-5.8                                           11000                                   
   74 L   ITA-TP-2-765   989-5.8                                           11000                                   
   76 L   T.PRETO--765   957-30.                                    -330.  11000                                   
   77 L   T.PRETO--500  1106-35.                                           11000                                   
   78 L   T.PRETO--345  1034-35.                                     800.  11000                                   
   79 L   T.PRETO---69   945-35.                                           11000                                   
   80 L   T.PRETO--FIC   945-35.                                           11000                                   
   81 L   T.PRETO--FIC   999-36.                                           11000                                   
   85 L   FOZ-500-50HZ   985-9.4                          5400.2727.1539.  11000                                   
   86 L   IBIUNA---345  1061-29.                          -51882720.3070.  11000                                   
   87 L   IBIUNA---500  1105-32.                                           11000                                   
  100 L   MARIMBON-500  1079-17.                                           11000                                   
  101 L   ARARAQUA-500  1082-27.                                    -292.  11000                                   
  102 L   POCOS----500  1095-37.                                           11000                                   
  103 L   CAMPINAS-500  1096-35.                                           11000                                   
  104 L   C.PAULIS-500  1080-49.                                           11000                                   
  105 L   ANGRA----500  1083-57.                                           11000                                   
  106 L   ADRIANO--500  1082-65.                                           11000                                   
  107 L   GRAJAU---500  1072-69.                                           11000                                   
  108 L   S.JOSE---500  1082-68.                                           11000                                   
  109 L   S.JOSE---FIC  1049-74.                                           11000                                   
  120 L   P.CALDAS-345  1043-36.                                           11000                                   
  121 L   P.CALDAS-FIC  1048-36.                                           11000                                   
  123 L   CAMPINAS-345  1036-38.                                           11000                                   
  124 L   CAMPINAS-FIC  1012-38.                                           11000                                   
  126 L   GUARULHO345B  1036-36.                                           11000                                   
  127 L   GUARULHO345A  1035-36.                                           11000                                   
  129 L   MOGI-----345  1031-37.                                           11000                                   
  131 L   M.MORAES-345  1046-29.                                           11000                                   
  132 L   M.MORAES-FIC  1046-32.                                           11000                                   
  134 L   LBARRETO-345  1053-28.                                           11000                                   
  136 L   FURNAS---345  1045-35.                                           11000                                   
  138 L   ITUTINGA-345  1020-54.                                           11000                                   
  140 L   ADRIANO--345  1039-70.                                     325.  11000                                   
  141 L   ADRIANO--FIC  1086-71.                                           11000                                   
  142 L   ADR-FIC-138A  1020-75.                                           11000                                   
  144 L   JACAREP--345  1058-71.                                           11000                                   
  145 L   ADR-FIC-138B  1020-75.                                           11000                                   
  146 L   ADR-FIC-138C  1021-75.                                           11000                                   
  147 L   CAMPOS---345  1022-91.                                     -60.  11000                                   
  148 L   CAMPOS---FIC  1014-95.                                           11000                                   
  149 L   VITORIA--345  1032-101                                           11000                                   
  150 L   VITORIA--FIC  1026-106                                           11000                                   
  151 L   VITO-FIC--CS  1000-101                                           11000                                   
  160 L   GUARULHOS230  1028-44.                             .5   0.       11000                                   
  161 L   MOGI-----230  1014-39.                            .33   0.       11000                                   
  169 L   S.JOSE---138  1039-73.                                     400.  11000                                   
  170 L   P.CALDAS-138  1050-40.                                           11000                                   
  171 L   CAMPINAS-138  1014-43.                           1.01   0.       11000                                   
  172 L   IMBARIE--138  1024-75.                                           11000                                   
  173 L   ADRIANO--138  1055-75.                                           11000                                   
  174 L   R.LEAO---138   987-95.                                           11000                                   
  175 L   CAMPOS---138  1073-95.                            .25   0. 104.  11000                                   
  176 L   GERA---CFLCL   957-93.                          -56.6 -4.5      181000                                   
  177 L   VITORIA--138  1025-105                                           11000                                   
  178 L   GRAJAU---138  1025-74.                                           11000                                   
  179 L   GRAJAU---FIC  1010-74.                                           11000                                   
  180 L   JACAREP--138  1000-74.                                     200.  11000                                   
  181 L   VALE---CFLCL  1032-73.                           51.5  3.9      181000                                   
  182 L   FUNIL----138  1019-65.                                           11000                                   
  183 L   C.PAULIS-138  1064-54.                                           11000                                   
  184 L   S.CRUZ---138  1027-71.                                           11000                                   
  185 L   ANGRA----138  1041-74.                           24.5   2.  30.  11000                                   
  186 L   CFLCL----138   957-93.                          147.532.23      181000                                   
  187 L   M.MORAES-138  1050-32.                                           11000                                   
  190 L   PCOLOMBIA138  1027-24.                                           11000                                   
  192 L   CAMPOS--13.8  1044-95.                                      30.  11000                                   
  193 L   S.JOSE--13.8  1049-74.                                           11000                                   
  194 L   ADRiAN-13.8A  1020-75.                                           11000                                   
  195 L   ADRIAN-13.8B  1110-71.                           2.31   0.  24.  11000                                   
  196 L   CAMPINAS13.8   928-38.                                     -50.  11000                                   
  198 L   POCOS---13.8   888-36.                           1.17   0.-100.  11000                                   
  199 L   VITORIA-13.8  1043-106                            .42   0.  30.  11000                                   
  200 L   UCAMPOS-FIC1  1064-98.                                           11000                                   
  201 L1  UCAMPOS--1CS  1035-99.   0.-5.26 -15.  15.       1.16   0.       11000                                   
  202 L   UCAMPOS-FIC2  1064-98.                                           11000                                   
  203 L1  UCAMPOS-1MQ   1035-97.   4.-5.24-99159915.       1.16   0.       11000                                   
  204 L   ADRiAN-13.8B  1020-75.                                           11000                                   
  205 L   ADRiAN-13.8C  1021-75.                                           11000                                   
  210 L   ITUMBIARA500  1082-14.                                    -111.  11000                                   
  211 L   BAND-FIC-CE1  1020-34.                                           11000                                   
  212 L   BAND-FIC-CE1  1027-34.                                           11000                                   
  213 L   MARIMBON-345  1026-19.                                           11000                                   
  214 L   MARIMBON-FIC  1066-19.                                           11000                                   
  215 L   BALTO-FICCE1  1030-59.                                           11000                                   
  216 L   PCOLOMBIA345  1050-21.                                           11000                                   
  217 L   ITUMBIARA345  1051-19.                                           11000                                   
  218 L   BANDEIRA-345  1006-34.                                     91.5  11000                                   
  219 L   B.SUL----345   983-42.                                     -60.  11000                                   
  220 L   CORUMBA--345  1045-23.                                           11000                                   
  222 L   BSUL-FIC-230   998-45.                                           11000                                   
  223 L   BAND-FIC-230   953-39.                                           11000                                   
  225 L   ITUMBIARA230  1050-21.                                           11000                                   
  226 L1  BANDEIR--230  1010-38.   0.-15.9-99999999.        .28   0.       11000                                   
  227 L   B.GERAL--230   994-45.                                           11000                                   
  228 L   B.SUL----230   996-45.                                           11000                                   
  229 L   B.ALTO---230  1033-59.                            .54   0. 27.7  11000                                   
  230 L   S.MESA---230  1041-67.                                           11000                                   
  231 L   R.VERDE--230  1024-37.                                           11000                                   
  232 L   B.SUL---13.8  1020-45.                                      30.  11000                                   
  236 L   B.SUL----138  1021-48.                            .81   0. 130.  11000                                   
  238 L   R.VERDE--138  1005-40.                            .13   0.       11000                                   
  239 L   S.MESA---138  1043-69.                                           11000                                   
  240 L   R.VERDE--FIC   994-40.                                           11000                                   
  241 L   R.VERDE-13.8   948-40.                                     -30.  11000                                   
  242 L   BAND-FIC-13.   953-39.                                           11000                                   
  246 L   MARIMBON13.8  1066-19.                                           11000                                   
  247 L   C.BRAVA--138  1043-70.                                           11000                                   
  250 L1  N.PECANH-GER  1005-65. 380.133.2-999999999                       91000                                   
  251 L   N.PECANH-138  1018-73.                                           91000                                   
  252 L   N.PECANH-230  1017-45.                                           91000                                   
  253 L1  FONTES---GER  1005-67. 130.51.84-999999999                       91000                                   
  254 L   FONTES---138  1018-73.                                           91000                                   
  255 L1  P.PASSOS-GER  1005-66.  95. 33.8-999999999                       91000                                   
  256 L   P.PASSOS-138  1020-73.                           17.1 6.21       91000                                   
  257 L   I.POMBOS-GER   919-92.                                           91000                                   
  258 L   I.POMBOS-138   966-92.                                           91000                                   
  259 L1  SCECILIA BOM  1000-80.   0.-15.4   0.  12.        32.   0.       91000                                   
  260 L   S.CECILI-138  1000-74.                           32.3  .82       91000                                   
  261 L1  VIGARIO BOMB  1030-73.   0.-30.5   0.  30.                       91000                                   
  262 L   VIGARIO--138  1012-73.                           5.04 1.35       91000                                   
  270 L   CORDOVIL-138  1044-74.                                           91000                                   
  271 L   MERITI---138  1033-74.                           41.3 5.16       91000                                   
  272 L   TRIAGEM--138  1027-76.                           42.2   0.       91000                                   
  273 L   SAUDADE--138   993-72.                           9.06 4.07       91000                                   
  274 L   V.REDOND-138   994-74.                           59.4 6.67 135.  91000                                   
  275 L   CASCADUR-138  1025-75.                           81.6 6.73       91000                                   
  276 L   BRISAMAR-138  1027-72.                           5.96 1.87       91000                                   
  277 L   ZIN------138  1027-72.                           66.9 20.5 67.5  91000                                   
  278 L   PALMARES-138  1032-73.                            70. 25.4 135.  91000                                   
  279 L   BRAHMA---138   976-77.                           5.77  1.8       91000                                   
  280 L   A.BRANCA-TAP  1017-76.                                           91000                                   
  283 L   T.SUL----138  1034-75.                                           91000                                   
  284 L   F.CANECA-138  1034-75.                           131.  -9.       91000                                   
  285 L   C.SOARES-138  1014-76.                           27.2 6.73       91000                                   
  286 L   R.FREIRE-138  1007-76.                           66.6 17.9       91000                                   
  287 L   SARAPUI--138  1034-74.                           20.5-1.66       91000                                   
  290 L   P.ERNESTO--B  1026-76.                           30.2 3.24       91000                                   
  291 L   P.ERNESTO-TA  1026-76.                                           91000                                   
  292 L   RAMOS----TAP  1023-76.                                           91000                                   
  294 L   TRIAGEM-TR5   1036-74.                           7.82   0.       91000                                   
  295 L   BPN ---B      1025-76.                           31.2 9.16       91000                                   
  296 L   VVQ----TAP    1025-75.                                           91000                                   
  300 L1  EMBORCA-04MQ  1040-15.1000.50.98-999999999                       21000                                   
  301 L1  JAGUARA-04MQ  1020-22. 415.-2.03-999999999                       21000                                   
  302 L1  NPONTE--02MQ  1040-18. 330. 82.3-99999999.                       21000                                   
  303 L1  SSIMAO--06MQ  1050-1.81700.177.2-999999999                       21000                                   
  304 L1  TMARIAS-06MQ  1020-38. 360.-21.3-999999999                       21000                                   
  305 L1  VGRANDE-04MQ  1020-18. 380.-18.6-999999999                       21000                                   
  306 L1  GUILMAN-01MQ  1030-52.  35..2922-99999999.                       21000                                   
  307 L   AVATINGU-138  1005-31.  1.4   0.                74.616.247       21000                                   
  308 L   BARBACEN-345  1046-51.                                           21000                                   
  309 L   BARBACEN-138  1055-53.                          45.2812.97       21000                                   
  310 L   BARBACE-CAP1  1069-53.                                      18.  21000                                   
  311 L   BARBACE-CAP2  1055-53.                                           21000                                   
  313 L   BARREIRO-345  1011-50.                                           21000                                   
  314 L   BARREIRO-138  1050-56.                          408.6119.4       21000                                   
  315 L1  BARREIRO-SIN  1060-56.   0. 32.3   0.   0.                       21000                                   
  316 L   BARREIRO-FIC  1020-56.                                           21000                                   
  318 L   CASSIA---138  1021-37.                          25.93-3.23       21000                                   
  319 L   CPENA----230  1006-70.                          18.326.473       21000                                   
  320 L   EMBORCAC-500  1092-21.                                     -91.  21000                                   
  321 L   EMBORCAC-138  1056-25.                          2.449.9159       21000                                   
  322 L   FRUTAL---138  1025-25.                          15.03-3.02       21000                                   
  323 L   ITUTING2-138  1050-55.                          86.55-8.34       21000                                   
  325 L   JAGUARA--500  1082-28.                                    -364.  21000                                   
  326 L   JAGUARA--345  1052-28.                                           21000                                   
  328 L   JAGUARA-FT-R  1070-31.                                           21000                                   
...
99999
DLIN
(De )d O d(Pa )NcEP ( R% )( X% )(Mvar)(Tap)(Tmn)(Tmx)(Phs)(Bc  )(Cn)(Ce)Ns(Cq)(1)(2)(3)(4)(5)(6)(7)(8)(9)(10
   40      2502 1    6.94914.566  .028                           20. 20.   20.                                
   40      2502 2    6.94914.566  .028                           20. 20.   20.                                
   40      2502 3    6.94914.566  .028                           20. 20.   20.                                
   40      2503 1    8.13919.122  .352                           20. 20.   20.                                
   40      2503 2    8.13919.122  .352                           20. 20.   20.                                
   40      2503 3    8.13919.122  .352                          99999999  9999                                
   40      2576 1    8.03916.789  .025                           31. 31.   31.                                
   42       211 1          11.06         1.                     99999999  9999                                
   43       212 1          11.06         1.                     99999999  9999                                
   44       179 1            .68         1.                     24002400  2400                                
   45       151 1          8.741         1.                     99999999  9999                                
   50        81 1          2.483         1.                     15001500  1500                                
   55       215 1          42.45         1.                     99999999  9999                                
   60        62 1     .076  1.84 927.8                          99999999  9999                                
   60        63 1     .076  1.85 929.1                          99999999  9999                                
   61        60 1 T         .623       1.05                     99999999  9999                                
   61        60 2 T         .642       1.05                     99999999  9999                                
   61        60 3 T         .623       1.05                     99999999  9999                                
   61        60 4 T         .623       1.05                     99999999  9999                                
   61      1106 1    .0052 .107311.033                          99999999  9999                                
   61      1106 2    .0051 .1057 10.87                          99999999  9999                                
   61      1106 3     .005 .103810.688                          99999999  9999                                
   61      1106 4    .0049 .102410.538                          99999999  9999                                
   62        65 1          -.749                                99999999  9999                                
   63        65 1          -.749                                99999999  9999                                
   65        68 1           .377         1.                     16501650  1650                                
   65        69 1          -.778                                99999999  9999                                
   65        70 1          -.778                                99999999  9999                                
   66        68 1          -.025      1.007 .8361.053         6616501650  1650                                
   66       999 1 T    .01   .01 1.135                          16361636  1636                                
   66       999 2      .01   .01 1.135                          99999999  9999                                
   67        68 1         1.7907         1.                     16501650  1650                                
   69        72 1     .064  1.53  760.                          99999999  9999                                
   70        72 1     .063  1.53 755.7                          99999999  9999                                
   72        73 1          -.915                                99999999  9999                                
   72        74 1          -.915                                99999999  9999                                
   73        76 1     .072  1.75 877.5                          99999999  9999                                
   74        76 1     .072  1.75  873.                          99999999  9999                                
   76        80 1           .376         1.                     16501650  1650                                
   76        81 1          1.033         1.                     15001500  1500                                
   77        80 1          -.025      1.169                     16501650  1650                                
   77       104 1     .162   2.5 216.6                          99999999  9999                                
   77       598 1 T   .107  1.44 133.4                          17321732  1732                                
   78        76 1           .899      1.038                     99999999  9999                                
   78        81 1           -.11      1.038                     15001500  1500                                
   78        86 1     .185   2.6  60.1                          18821882  1882                                
   78        86 2     .185   2.6  60.1                          99999999  9999                                
   78       449 1 T    .08   .74 12.85                          10751075  1075                                
   78       449 2 T    .08   .74 12.85                          10751075  1075                                
   78       464 1 T    .11   .98 17.07                          10751075  1075                                
   78       464 2 T    .11   .98 17.07                          10751075  1075                                
   78       464 3 T    .11   .98 17.07                          10751075  1075                                
   78       471 1      .09   .84 13.53                          10751075  1075                                
   78       471 2      .09   .84 13.53                          10751075  1075                                
   79        80 1          1.789         1.                     16501650  1650                                
   85      1101 1 T  .0067 .1166 11.94                          99999999  9999                                
   85      1101 2 T  .0069 .119912.279                          99999999  9999                                
   85      1103 1    .0057 .0983 10.18                          99999999  9999                                
   85      1103 2 T  .0058    .1 10.38                          99999999  9999                                
   86        48 1           .953      1.013                     10501050  1050                                
   86        87 1           1.11       .962                     99999999  9999                                
   86       126 1     .108  1.83  51.2                          99999999  9999                                
   86       126 2     .108  1.83  51.2                          99999999  9999                                
   86       488 1    .0806 1.29138.341                          14941494  1494                                
   86       488 2    .0806 1.29138.341                          14941494  1494                                
   87       103 1     .101  1.56 133.7                          99999999  9999                                
  100        20 1           .881         1.                     15201520  1520                                
  100       101 1     .172  2.72 231.4                          17321732  1732                                
  100       101 2     .171   2.7 230.2                          99999999  9999                                
  100       214 1          2.978       1.05                     560.560.  560.                                
  100       535 1 T   .153   2.4 203.8                          866.866.  866.                                
  101       102 1     .156  2.46 208.5                          17321732  1732                                
  101       103 1     .152  2.39 202.6                          17321732  1732                                
  102       104 1     .172  2.72 231.3                          12991299  1299                                
  102       121 1          2.929       1.05                     560.560.  560.                                
  103       104 1     .196   3.1 264.9                          12991299  1299                                
  103       124 1           2.94       1.05                     560.560.  560.                                
  104       105 1     .092  1.48 119.6                          12991299  1299                                
  104       106 1     .152  2.39 202.7                          12991299  1299                                
  104       106 2     .152  2.39 203.1                          99999999  9999                                
  104       598 1 T   .075  1.15  98.9                          17321732  1732                                
  105        10 1          1.939       1.05                     759.759.  759.                                
  105       106 1     .102   1.6 134.7                          12991299  1299                                
  106       107 1     .033   .68  73.8                          17321732  1732                                
  106       108 1      .02   .41  44.3                          99999999  9999                                
  106       141 1          1.325       1.05                     11201120  1120                                
  107       108 1 T   .041   .86  92.6                          99999999  9999                                
  107       179 1           .574       1.05                     24002400  2400                                
  108       109 1          2.312       1.05                     99999999  9999                                
  108       109 2          2.312       1.05                     600.600.  600.                                
  108       109 3          2.312       1.05                     99999999  9999                                
  120       121 1          -.526         1.                     560.560.  560.                                
  120       123 1 T   .357  3.95  66.7                          597.597.  597.                                
  120       126 1 T     .6  5.95  92.8                          99999999  9999                                
  120       126 2 T   .606  6.02  93.8                          99999999  9999                                
  120       129 1      .57  6.35 108.3                          597.597.  597.                                
  120       134 1 T   .556  6.16 105.3                          717.717.  717.                                
  120       134 2 T   .553  6.13 104.7                          99999999  9999                                
  120       136 1 T   .436   4.3  66.6                          597.597.  597.                                
  120       136 2 T   .436   4.3  66.6                          99999999  9999                                
  123       124 1          -.521       1.02                     560.560.  560.                                
  123       127 1      .25  2.76  46.5                          99999999  9999                                
  126       127 1            .01                                99999999  9999                                
  126       435 1 T   .009  .153 3.589                          26892689  2689                                
  126       435 2     .009  .153 3.589                          26892689  2689                                
  127       442 1       .1   .99  15.2                          914.914.  914.                                
  129       449 1 T   .018  .176  2.66                          10751075  1075                                
  131        22 1          1.371         1.                     378.378.  378.                                
  131       132 1          6.619       .972                     150.150.  150.                                
  131       134 1 T   .092  1.01  16.9                          717.717.  717.                                
  131       136 1 T   .348  3.42  52.8                          717.717.  717.                                
  134        12 1          1.046       .999                     11361136  1136                                
  134       136 1 T   .375  4.13  69.9                          597.597.  597.                                
  134       326 1 T    .07   .7612.287                          862.934.  862.                                
  134       396 1     .318  3.51  59.2                          699.717.  699.                                
  136        16 1          1.528         1.                     12801280  1280                                
  136       138 1     .649  6.46 100.8                          896.896.  896.                                
  136       138 2     .558  6.19 105.7                          99999999  9999                                
  136       367 1      .22  2.18  33.4                          918.918.  918.                                
  138       140 1 T   .652   6.5 101.4                          896.896.  896.                                
  138       140 2 T   .558  6.19 105.7                          99999999  9999                                
  140       141 1          -.214       .965                     11201120  1120                                
  140       142 1           4.59      1.005                     675.675.  675.                                
  140       144 1     .127  1.25  19.3                          717.836.  717.                                
  140       144 2     .109  1.19  20.1                          99999999  9999                                
  140       145 1            5.3      1.005                     99999999  9999                                
  140       146 1           4.66      1.005                     99999999  9999                                
  140       147 1     .737   8.2 142.4                          639.639.  639.                                
  140       147 2     .742  8.29 143.7                          99999999  9999                                
  147       148 1          4.417      1.004                     99999999  9999                                
  147       149 1     .629  6.98  120.                          717.717.  717.                                
  147       149 2     .625  6.95 119.3                          99999999  9999                                
  149       150 1          1.699      1.004                     675.675.  675.                                
  149       151 1           8.74       1.05                     99999999  9999                                
  150       199 1 T        5.512                                675.675.  675.                                
  160       419 1 T    .41  2.08  3.78                          310.310.  310.                                
  161       129 1             1.      .9993   .9  1.1        16199999999  9999                                
  161       446 1     .044   .42 1.256                          358.358.  358.                                
  161       454 1 T   .761 5.016 8.212                          358.358.  358.                                
  169       109 1          -.112       .991                     99999999  9999                                
  169       109 2          -.112       .991                     600.600.  600.                                
  169       109 3          -.112       .991                     99999999  9999                                
  169       172 1     .623   3.6  1.04                          194.247.  194.                                
  169       172 2     .665  3.84  1.11                          99999999  9999                                
  169       270 1    .14961.10681.3395                          269.324.  269.                                
  169       270 2    .14961.10681.3395                          269.324.  269.                                
  169       271 1 T  .17011.2582 .3807                          269.324.  269.                                
  169       275 1 T   .561 3.484 1.013                          217.264.  217.                                
  169       287 1 T    .15   1.1  .331                          269.324.  269.                                
  169      1604 1 T    .11   .65  .184                          269.324.  269.                                
  169      1610 1 T  .4221 2.694 .7886                          269.324.  269.                                
  169      1698 1 T  .0252 .1864 .0564                          269.324.  269.                                
  169      1730 1     3.03 17.53  5.05                          99999999  9999                                
  170       120 1         1.6721      1.042 .9931.202        170600.600.  600.                                
  170       364 1 T    .03   .15   .14                          502.502.  502.                                
  170       365 1 T    .02   .24   .11                          502.502.  502.                                
  170       705 1     2.29  8.39  2.27                          121.149.  121.                                
  170       705 2     2.29  8.39  2.27                          121.149.  121.                                
  171       123 1          6.711      1.014 .9461.145        17199999999  9999                                
  171       123 2          6.711      1.014 .9461.145        17199999999  9999                                
  171       123 3          6.704      1.014 .9461.145        17199999999  9999                                
  171      2241 1 T    .01   .04   .01                          172.185.  172.                                
  171      2241 2 T    .01   .04   .01                          172.185.  172.                                
  171      2241 3 T    .01   .04   .01                          188.188.  188.                                
  172      1731 1     2.24 12.78 3.652                          99999999  9999                                
  172      1740 1            .01                                99999999  9999                                
  172      1741 1     1.72  4.14  1.22                          99999999  9999                                
  173       142 1           -.21      1.033                     675.675.  675.                                
  173       145 1           -.53      1.033                     99999999  9999                                
  173       146 1           -.02      1.033                     99999999  9999                                
  173      1664 1      .09   .37    .1                          99999999  9999                                
  173      1664 2      .08   .49  .934                          99999999  9999                                
  173      1729 1     2.82 11.88  3.22                          99999999  9999                                
  173      1729 2     2.82 11.88  3.22                          99999999  9999                                
  173      1730 1     3.14 18.25  5.25                          99999999  9999                                
  173      1730 2    3.03517.558 5.043                          99999999  9999                                
  174       175 1     6.43 27.14  7.38                          143.143.  143.                                
  174       175 2     6.43 27.14  7.38                          99999999  9999                                
  174      1729 1 T   6.32 26.65  7.25                          143.143.  143.                                
  174      1729 2 T   6.32 26.65  7.25                          143.143.  143.                                
  174      1745 1 T    .13   .35  .086                          100.127.  100.                                
  174      1745 2      .13   .35  .086                          99999999  9999                                
  175       147 1          4.251      1.058                     99999999  9999                                
  175       148 1          -.204      1.058                     99999999  9999                                
  175      1760 1      .06   .25   .07                          143.143.  143.                                
  175      2614 1      6.2 26.16  7.11                          115.115.  115.                                
  175      2614 2      6.2 26.16  7.11                          99999999  9999                                
  176       186 1            .01                                99999999  9999                                
  177       150 1          -.196      1.019 .8961.095        177675.675.  675.                                
  177      2666 1            .01                                732.732.  732.                                
  178       179 1           -.02      1.025                     24002400  2400                                
  178       180 1 T  1.134 5.208 1.431                          217.264.  217.                                
  178       180 2 T   .878 5.001 1.421                          99999999  9999                                
  178       275 1 T    .37 2.106    .6                          217.264.  217.                                
  178       283 1 T    .28  1.58   .45                          217.264.  217.                                
  178       283 2 T    .28  1.58   .45                          217.264.  217.                                
  178       283 3      .28  1.58   .45                          217.264.  217.                                
  178       283 4      .28  1.58   .45                          217.264.  217.                                
  178       284 1 T  .36962.1058 .5984                          99999999  9999                                
  178       296 1 T  .36962.1058 .5984                          99999999  9999                                
...
99999
DCER
(No ) O Gr Un (Kb ) (Incl) ( Qg)( Qn)( Qm) C E L
   42    1  1   211     2. -11.2 -22.  33. P L L
   42    2  1   211     2. -11.2 -22.  33. P L L
   55    3  1   215     3. -22.7 -50. 100.   L L
99999
DGLT
(G (Vmn) (Vmx) (Vmne (Vmxe
 0   .95  1.05   .95  1.05
99999
DARE
(Ar    (Xchg)     (      Identificacao da area       ) (Xmin) (Xmax)
  1        0.     *              FURNAS              *               
  2        0.     *              CEMIG               *               
  3        0.       ****** CEMIG - SECUNDARIA *****                  
  4        0.     *           ELETROPAULO            *               
  5        0.     *              CESP                *               
  6        0.       ******  CESP - SECUNDARIA *****                  
  7        0.                     CPFL                               
  8        0.             C.P.F.L.   CAMPINAS                        
  9        0.     *              LIGHT               *               
 10        0.     *              CERJ                *               
 11        0.     *             ESCELSA              *               
 12        0.     *              CELG                *               
 13        0.     *               CEB                *               
 14        0.     *              CEMAT               *               
 16        0.                   CELTINS                              
 17        0.     *             ITAIPU               *               
 18        0.     *      CATAGUAZES LEOPOLDINA       *               
 20        0.     *            ELETROSUL             *               
 21        0.     *              COPEL               *               
 22        0.       ****** COPEL - SECUNDARIA *****                  
 23        0.     *              CEEE                *               
 25        0.     *             CELESC               *               
 26        0.     ************* ENERSUL **************               
99999
FIM